# COMMAND: ['bash', 'run.sh']
# Working directory: /workdir/output/artifacts
# Env: {}

/*---------------------------------------------------------------------------*\
  =========                 |
  \\      /  F ield         | OpenFOAM: The Open Source CFD Toolbox
   \\    /   O peration     | Website:  https://openfoam.org
    \\  /    A nd           | Version:  8
     \\/     M anipulation  |
\*---------------------------------------------------------------------------*/
Build  : 8-1c9b5879390b
Exec   : blockMesh
Date   : Sep 30 2025
Time   : 21:09:17
Host   : "api-9go0jhdmqm3ab15t46j6i1vsg-td3q"
PID    : 1468
I/O    : uncollated
Case   : /workdir/output/artifacts
nProcs : 1
sigFpe : Enabling floating point exception trapping (FOAM_SIGFPE).
fileModificationChecking : Monitoring run-time modified files using timeStampMaster (fileModificationSkew 10)
allowSystemOperations : Allowing user-supplied system call operations

// * * * * * * * * * * * * * * * * * * * * * * * * * * * * * * * * * * * * * //
Create time

Creating block mesh from
    "system/blockMeshDict"
Creating block edges
No non-planar block faces defined
Creating topology blocks
Creating topology patches

Creating block mesh topology

Check topology

	Basic statistics
		Number of internal faces : 0
		Number of boundary faces : 6
		Number of defined boundary faces : 6
		Number of undefined boundary faces : 0
	Checking patch -> block consistency

Creating block offsets
Creating merge list .

Creating polyMesh from blockMesh
Creating patches
Creating cells
Creating points with scale 0.1
    Block 0 cell size :
        i : 0.005 .. 0.005
        j : 0.005 .. 0.005
        k : 0.01

Writing polyMesh
----------------
Mesh Information
----------------
  boundingBox: (0 0 0) (0.1 0.1 0.01)
  nPoints: 882
  nCells: 400
  nFaces: 1640
  nInternalFaces: 760
----------------
Patches
----------------
  patch 0 (start: 760 size: 20) name: movingWall
  patch 1 (start: 780 size: 60) name: fixedWalls
  patch 2 (start: 840 size: 800) name: frontAndBack

End

/*---------------------------------------------------------------------------*\
  =========                 |
  \\      /  F ield         | OpenFOAM: The Open Source CFD Toolbox
   \\    /   O peration     | Website:  https://openfoam.org
    \\  /    A nd           | Version:  8
     \\/     M anipulation  |
\*---------------------------------------------------------------------------*/
Build  : 8-1c9b5879390b
Exec   : icoFoam
Date   : Sep 30 2025
Time   : 21:09:17
Host   : "api-9go0jhdmqm3ab15t46j6i1vsg-td3q"
PID    : 1471
I/O    : uncollated
Case   : /workdir/output/artifacts
nProcs : 1
sigFpe : Enabling floating point exception trapping (FOAM_SIGFPE).
fileModificationChecking : Monitoring run-time modified files using timeStampMaster (fileModificationSkew 10)
allowSystemOperations : Allowing user-supplied system call operations

// * * * * * * * * * * * * * * * * * * * * * * * * * * * * * * * * * * * * * //
Create time

Create mesh for time = 0

Reading transportProperties

Reading field p

Reading field U

Reading/calculating face flux field phi


Starting time loop

Time = 1

Courant Number mean: 0 max: 0
smoothSolver:  Solving for Ux, Initial residual = 1, Final residual = 9.57236e-06, No Iterations 177
smoothSolver:  Solving for Uy, Initial residual = 0, Final residual = 0, No Iterations 0
DICPCG:  Solving for p, Initial residual = 1, Final residual = 0.021755, No Iterations 22
time step continuity errors : sum local = 0.140915, global = -7.72918e-17, cumulative = -7.72918e-17
DICPCG:  Solving for p, Initial residual = 0.708198, Final residual = 4.39279e-07, No Iterations 34
time step continuity errors : sum local = 3.90577e-06, global = 2.32537e-16, cumulative = 1.55245e-16
ExecutionTime = 0.01 s  ClockTime = 0 s

Time = 2

Courant Number mean: 37.6518 max: 132.927
smoothSolver:  Solving for Ux, Initial residual = 0.194868, Final residual = 9.88262e-06, No Iterations 177
smoothSolver:  Solving for Uy, Initial residual = 0.37728, Final residual = 9.58323e-06, No Iterations 148
DICPCG:  Solving for p, Initial residual = 0.90725, Final residual = 0.0143779, No Iterations 21
time step continuity errors : sum local = 0.195082, global = -1.65171e-16, cumulative = -9.92617e-18
DICPCG:  Solving for p, Initial residual = 0.659195, Final residual = 3.32713e-07, No Iterations 32
time step continuity errors : sum local = 5.916e-06, global = -1.77248e-16, cumulative = -1.87174e-16
ExecutionTime = 0.01 s  ClockTime = 0 s

Time = 3

Courant Number mean: 66.2631 max: 231.68
smoothSolver:  Solving for Ux, Initial residual = 0.256304, Final residual = 9.75957e-06, No Iterations 176
smoothSolver:  Solving for Uy, Initial residual = 0.507196, Final residual = 9.59024e-06, No Iterations 164
DICPCG:  Solving for p, Initial residual = 0.948641, Final residual = 0.0170693, No Iterations 21
time step continuity errors : sum local = 0.396797, global = -1.05879e-17, cumulative = -1.97762e-16
DICPCG:  Solving for p, Initial residual = 0.68084, Final residual = 4.1313e-07, No Iterations 33
time step continuity errors : sum local = 1.28069e-05, global = 9.26442e-18, cumulative = -1.88498e-16
ExecutionTime = 0.01 s  ClockTime = 0 s

End


 -------
